FoamFile
{
	version	2.0;
	format	binary;
	class	volScalarField;
	location	"0/hot";
	object	p_rgh;
	arch	"LSB;label=32;scalar=64";
}
dimensions	[1 -1 -2 0 0 0 0];
internalField	uniform 100000;
boundaryField
{
	hot_inlet
	{
		type	fixedFluxPressure;
	}
	hot_outlet
	{
		type	fixedValue;
		value	uniform 100000;
	}
	defaultFaces
	{
		type	fixedFluxPressure;
	}
	hot_to_cold
	{
		type	fixedFluxPressure;
	}
}
